<?xml version="1.0" encoding="UTF-8"?>

<!-- generated on 2025-10-11 19:52:17 by Eclipse SUMO netconvert Version 1.24.0
<netconvertConfiguration xmlns:xsi="http://www.w3.org/2001/XMLSchema-instance" xsi:noNamespaceSchemaLocation="http://sumo.dlr.de/xsd/netconvertConfiguration.xsd">

    <input>
        <osm-files value="map.osm"/>
    </input>

    <output>
        <output-file value="mountain.net.xml"/>
    </output>

    <projection>
        <proj.utm value="true"/>
    </projection>

</netconvertConfiguration>
-->

<net version="1.20" junctionCornerDetail="5" limitTurnSpeed="5.50" xmlns:xsi="http://www.w3.org/2001/XMLSchema-instance" xsi:noNamespaceSchemaLocation="http://sumo.dlr.de/xsd/net_file.xsd">

    <location netOffset="-192211.61,-1296438.33" convBoundary="0.00,0.00,3828.59,7944.84" origBoundary="78.176556,11.713729,78.210971,11.785806" projParameter="+proj=utm +zone=44 +ellps=WGS84 +datum=WGS84 +units=m +no_defs"/>

    <type id="highway.primary" priority="12" numLanes="2" speed="27.78" disallow="tram rail_urban rail rail_electric rail_fast ship container cable_car subway aircraft wheelchair scooter drone" oneway="0"/>
    <type id="highway.service" priority="1" numLanes="1" speed="5.56" allow="pedestrian delivery bicycle" oneway="0"/>
    <type id="highway.steps" priority="1" numLanes="1" speed="1.39" allow="pedestrian" oneway="1" width="2.00"/>
    <type id="highway.tertiary" priority="10" numLanes="1" speed="22.22" disallow="tram rail_urban rail rail_electric rail_fast ship container cable_car subway aircraft wheelchair scooter drone" oneway="0"/>
    <type id="highway.track" priority="1" numLanes="1" speed="5.56" allow="pedestrian motorcycle moped bicycle" oneway="0"/>

    <edge id=":2825729229_0" function="internal">
        <lane id=":2825729229_0_0" index="0" disallow="tram rail_urban rail rail_electric rail_fast ship container cable_car subway aircraft wheelchair scooter drone" speed="3.65" length="4.67" shape="3828.43,7915.24 3829.70,7915.92 3830.18,7916.68 3829.86,7917.51 3828.74,7918.42"/>
    </edge>
    <edge id=":313766334_0" function="internal">
        <lane id=":313766334_0_0" index="0" disallow="tram rail_urban rail rail_electric rail_fast ship container cable_car subway aircraft wheelchair scooter drone" speed="3.65" length="4.67" shape="87.39,0.42 87.85,-0.95 88.51,-1.54 89.39,-1.37 90.48,-0.42"/>
    </edge>
    <edge id=":3848470294_0" function="internal">
        <lane id=":3848470294_0_0" index="0" allow="pedestrian delivery bicycle" speed="3.65" length="4.67" shape="2370.31,7409.81 2371.64,7409.26 2372.53,7409.37 2372.97,7410.14 2372.97,7411.59"/>
    </edge>
    <edge id=":3848470295_0" function="internal">
        <lane id=":3848470295_0_0" index="0" allow="pedestrian delivery bicycle" speed="4.91" length="5.16" shape="2367.78,7425.29 2366.57,7424.50 2365.44,7424.33 2364.40,7424.78 2363.43,7425.86"/>
    </edge>
    <edge id=":3848470295_1" function="internal">
        <lane id=":3848470295_1_0" index="0" allow="pedestrian delivery bicycle" speed="5.56" length="10.24" shape="2367.78,7425.29 2365.82,7423.10 2364.88,7420.86 2364.95,7418.56 2366.03,7416.22"/>
    </edge>
    <edge id=":3848470295_2" function="internal">
        <lane id=":3848470295_2_0" index="0" allow="pedestrian delivery bicycle" speed="3.65" length="4.67" shape="2367.78,7425.29 2367.41,7423.90 2367.63,7423.03 2368.46,7422.69 2369.89,7422.89"/>
    </edge>
    <edge id=":3848470295_3" function="internal">
        <lane id=":3848470295_3_0" index="0" allow="pedestrian delivery bicycle" speed="5.52" length="5.57" shape="2368.69,7418.00 2368.16,7419.21 2368.18,7420.42 2368.76,7421.65 2369.89,7422.89"/>
    </edge>
    <edge id=":3848470295_4" function="internal">
        <lane id=":3848470295_4_0" index="0" allow="pedestrian delivery bicycle" speed="5.56" length="9.46" shape="2368.69,7418.00 2363.43,7425.86"/>
    </edge>
    <edge id=":3848470295_5" function="internal">
        <lane id=":3848470295_5_0" index="0" allow="pedestrian delivery bicycle" speed="3.65" length="4.67" shape="2368.69,7418.00 2367.36,7418.55 2366.47,7418.44 2366.03,7417.66 2366.03,7416.22"/>
    </edge>
    <edge id=":3848470295_6" function="internal">
        <lane id=":3848470295_6_0" index="0" allow="pedestrian delivery bicycle" speed="5.56" length="9.45" shape="2360.77,7424.08 2366.03,7416.22"/>
    </edge>
    <edge id=":3848470295_7" function="internal">
        <lane id=":3848470295_7_0" index="0" allow="pedestrian delivery bicycle" speed="5.56" length="10.84" shape="2360.77,7424.08 2362.80,7421.83 2364.99,7420.88 2367.36,7421.23 2369.89,7422.89"/>
    </edge>
    <edge id=":3848470295_8" function="internal">
        <lane id=":3848470295_8_0" index="0" allow="pedestrian delivery bicycle" speed="3.65" length="4.67" shape="2360.77,7424.08 2362.10,7423.52 2362.99,7423.64 2363.43,7424.41 2363.43,7425.86"/>
    </edge>
    <edge id=":3848470296_0" function="internal">
        <lane id=":3848470296_0_0" index="0" allow="pedestrian delivery bicycle" speed="5.02" length="5.03" shape="2353.03,7446.77 2351.85,7446.05 2350.73,7445.89 2349.67,7446.28 2348.67,7447.24"/>
    </edge>
    <edge id=":3848470296_1" function="internal">
        <lane id=":3848470296_1_0" index="0" allow="pedestrian delivery bicycle" speed="5.56" length="9.99" shape="2353.03,7446.77 2351.14,7444.73 2350.25,7442.59 2350.36,7440.33 2351.48,7437.96"/>
    </edge>
    <edge id=":3848470296_2" function="internal">
        <lane id=":3848470296_2_0" index="0" allow="pedestrian delivery bicycle" speed="3.65" length="4.67" shape="2353.03,7446.77 2352.62,7445.39 2352.82,7444.52 2353.64,7444.16 2355.07,7444.30"/>
    </edge>
    <edge id=":3848470296_3" function="internal">
        <lane id=":3848470296_3_0" index="0" allow="pedestrian delivery bicycle" speed="5.30" length="5.20" shape="2354.14,7439.74 2353.59,7440.94 2353.56,7442.10 2354.05,7443.22 2355.07,7444.30"/>
    </edge>
    <edge id=":3848470296_4" function="internal">
        <lane id=":3848470296_4_0" index="0" allow="pedestrian delivery bicycle" speed="5.56" length="9.28" shape="2354.14,7439.74 2348.67,7447.24"/>
    </edge>
    <edge id=":3848470296_5" function="internal">
        <lane id=":3848470296_5_0" index="0" allow="pedestrian delivery bicycle" speed="3.65" length="4.67" shape="2354.14,7439.74 2352.81,7440.29 2351.92,7440.18 2351.48,7439.40 2351.48,7437.96"/>
    </edge>
    <edge id=":3848470296_6" function="internal">
        <lane id=":3848470296_6_0" index="0" allow="pedestrian delivery bicycle" speed="5.56" length="9.03" shape="2346.16,7445.25 2351.48,7437.96"/>
    </edge>
    <edge id=":3848470296_7" function="internal">
        <lane id=":3848470296_7_0" index="0" allow="pedestrian delivery bicycle" speed="5.56" length="10.28" shape="2346.16,7445.25 2348.21,7443.31 2350.37,7442.50 2352.66,7442.83 2355.07,7444.30"/>
    </edge>
    <edge id=":3848470296_8" function="internal">
        <lane id=":3848470296_8_0" index="0" allow="pedestrian delivery bicycle" speed="3.65" length="4.67" shape="2346.16,7445.25 2347.53,7444.81 2348.41,7444.99 2348.79,7445.80 2348.67,7447.24"/>
    </edge>
    <edge id=":3848470299_0" function="internal">
        <lane id=":3848470299_0_0" index="0" allow="pedestrian delivery bicycle" speed="5.56" length="7.66" shape="2290.37,7472.29 2289.27,7470.51 2289.00,7468.79 2289.56,7467.15 2290.94,7465.58"/>
    </edge>
    <edge id=":3848470299_1" function="internal">
        <lane id=":3848470299_1_0" index="0" allow="pedestrian delivery bicycle" speed="3.90" length="2.55" shape="2293.02,7468.00 2292.56,7468.53 2292.38,7469.08 2292.47,7469.65 2292.83,7470.24"/>
    </edge>
    <edge id=":3848470300_0" function="internal">
        <lane id=":3848470300_0_0" index="0" allow="pedestrian delivery bicycle" speed="5.56" length="10.32" shape="2325.38,7481.54 2323.09,7479.58 2321.54,7478.10 2320.11,7476.51 2318.17,7474.19"/>
    </edge>
    <edge id=":3848470300_1" function="internal">
        <lane id=":3848470300_1_0" index="0" allow="pedestrian delivery bicycle" speed="5.56" length="10.71" shape="2325.38,7481.54 2323.59,7479.47 2322.93,7477.20 2323.40,7474.74 2325.00,7472.09"/>
    </edge>
    <edge id=":3848470300_2" function="internal">
        <lane id=":3848470300_2_0" index="0" allow="pedestrian delivery bicycle" speed="3.65" length="4.67" shape="2325.38,7481.54 2324.98,7480.16 2325.18,7479.29 2326.00,7478.93 2327.44,7479.09"/>
    </edge>
    <edge id=":3848470300_3" function="internal">
        <lane id=":3848470300_3_0" index="0" allow="pedestrian delivery bicycle" speed="5.37" length="5.67" shape="2327.51,7474.07 2326.61,7475.53 2326.29,7476.85 2326.57,7478.04 2327.44,7479.09"/>
    </edge>
    <edge id=":3848470300_4" function="internal">
        <lane id=":3848470300_4_0" index="0" allow="pedestrian delivery bicycle" speed="5.56" length="11.26" shape="2327.51,7474.07 2325.21,7476.26 2322.88,7477.01 2320.53,7476.32 2318.17,7474.19"/>
    </edge>
    <edge id=":3848470300_5" function="internal">
        <lane id=":3848470300_5_0" index="0" allow="pedestrian delivery bicycle" speed="3.65" length="4.67" shape="2327.51,7474.07 2326.14,7474.51 2325.27,7474.33 2324.89,7473.52 2325.00,7472.09"/>
    </edge>
    <edge id=":3848470300_6" function="internal">
        <lane id=":3848470300_6_0" index="0" allow="pedestrian delivery bicycle" speed="4.85" length="5.27" shape="2320.63,7472.14 2321.73,7473.14 2322.83,7473.46 2323.92,7473.11 2325.00,7472.09"/>
    </edge>
    <edge id=":3848470300_7" function="internal">
        <lane id=":3848470300_7_0" index="0" allow="pedestrian delivery bicycle" speed="5.56" length="9.75" shape="2320.63,7472.14 2322.48,7474.37 2323.80,7475.85 2325.24,7477.21 2327.44,7479.09"/>
    </edge>
    <edge id=":3848470300_8" function="internal">
        <lane id=":3848470300_8_0" index="0" allow="pedestrian delivery bicycle" speed="3.65" length="4.67" shape="2320.63,7472.14 2320.78,7473.58 2320.42,7474.40 2319.55,7474.60 2318.17,7474.19"/>
    </edge>
    <edge id=":3848470302_0" function="internal">
        <lane id=":3848470302_0_0" index="0" allow="pedestrian delivery bicycle" speed="5.02" length="5.02" shape="2309.43,7495.18 2308.41,7494.25 2307.34,7493.89 2306.23,7494.07 2305.06,7494.81"/>
    </edge>
    <edge id=":3848470302_1" function="internal">
        <lane id=":3848470302_1_0" index="0" allow="pedestrian delivery bicycle" speed="5.56" length="9.40" shape="2309.43,7495.18 2303.42,7487.95"/>
    </edge>
    <edge id=":3848470302_2" function="internal">
        <lane id=":3848470302_2_0" index="0" allow="pedestrian delivery bicycle" speed="3.65" length="4.67" shape="2309.43,7495.18 2309.28,7493.74 2309.64,7492.92 2310.51,7492.72 2311.89,7493.13"/>
    </edge>
    <edge id=":3848470302_3" function="internal">
        <lane id=":3848470302_3_0" index="0" allow="pedestrian delivery bicycle" speed="5.56" length="9.40" shape="2305.88,7485.91 2311.89,7493.13"/>
    </edge>
    <edge id=":3848470302_4" function="internal">
        <lane id=":3848470302_4_0" index="0" allow="pedestrian delivery bicycle" speed="5.56" length="10.16" shape="2305.88,7485.91 2307.32,7488.26 2307.67,7490.53 2306.91,7492.71 2305.06,7494.81"/>
    </edge>
    <edge id=":3848470302_5" function="internal">
        <lane id=":3848470302_5_0" index="0" allow="pedestrian delivery bicycle" speed="3.65" length="4.67" shape="2305.88,7485.91 2306.03,7487.34 2305.67,7488.16 2304.80,7488.36 2303.42,7487.95"/>
    </edge>
    <edge id=":3848470302_6" function="internal">
        <lane id=":3848470302_6_0" index="0" allow="pedestrian delivery bicycle" speed="5.09" length="5.06" shape="2302.98,7492.38 2303.91,7491.33 2304.29,7490.24 2304.13,7489.12 2303.42,7487.95"/>
    </edge>
    <edge id=":3848470302_7" function="internal">
        <lane id=":3848470302_7_0" index="0" allow="pedestrian delivery bicycle" speed="5.56" length="10.23" shape="2302.98,7492.38 2305.35,7490.87 2307.63,7490.49 2309.81,7491.25 2311.89,7493.13"/>
    </edge>
    <edge id=":3848470302_8" function="internal">
        <lane id=":3848470302_8_0" index="0" allow="pedestrian delivery bicycle" speed="3.65" length="4.67" shape="2302.98,7492.38 2304.41,7492.21 2305.24,7492.55 2305.45,7493.42 2305.06,7494.81"/>
    </edge>
    <edge id=":3848470305_0" function="internal">
        <lane id=":3848470305_0_0" index="0" allow="pedestrian delivery bicycle" speed="3.65" length="4.67" shape="2448.23,7491.82 2448.60,7493.21 2448.37,7494.08 2447.54,7494.41 2446.11,7494.22"/>
    </edge>
    <edge id=":3848470309_0" function="internal">
        <lane id=":3848470309_0_0" index="0" allow="pedestrian delivery bicycle" speed="3.65" length="4.67" shape="2277.31,7518.61 2275.88,7518.79 2275.06,7518.44 2274.84,7517.57 2275.23,7516.19"/>
    </edge>
    <edge id=":3848470320_0" function="internal">
        <lane id=":3848470320_0_0" index="0" allow="pedestrian delivery bicycle" speed="5.56" length="9.40" shape="2495.78,7550.59 2489.93,7557.96"/>
    </edge>
    <edge id=":3848470320_1" function="internal">
        <lane id=":3848470320_1_0" index="0" allow="pedestrian delivery bicycle" speed="5.56" length="10.17" shape="2495.78,7550.59 2493.79,7552.46 2491.63,7553.26 2489.32,7552.97 2486.85,7551.62"/>
    </edge>
    <edge id=":3848470320_2" function="internal">
        <lane id=":3848470320_2_0" index="0" allow="pedestrian delivery bicycle" speed="3.65" length="4.67" shape="2495.78,7550.59 2494.40,7551.04 2493.53,7550.85 2493.15,7550.04 2493.27,7548.60"/>
    </edge>
    <edge id=":3848470320_3" function="internal">
        <lane id=":3848470320_3_0" index="0" allow="pedestrian delivery bicycle" speed="5.15" length="5.13" shape="2488.76,7549.05 2490.02,7549.75 2491.20,7549.91 2492.28,7549.53 2493.27,7548.60"/>
    </edge>
    <edge id=":3848470320_4" function="internal">
        <lane id=":3848470320_4_0" index="0" allow="pedestrian delivery bicycle" speed="5.56" length="10.32" shape="2488.76,7549.05 2490.78,7551.05 2491.64,7553.20 2491.36,7555.50 2489.93,7557.96"/>
    </edge>
    <edge id=":3848470320_5" function="internal">
        <lane id=":3848470320_5_0" index="0" allow="pedestrian delivery bicycle" speed="3.65" length="4.67" shape="2488.76,7549.05 2489.25,7550.41 2489.09,7551.29 2488.29,7551.69 2486.85,7551.62"/>
    </edge>
    <edge id=":3848470320_6" function="internal">
        <lane id=":3848470320_6_0" index="0" allow="pedestrian delivery bicycle" speed="5.01" length="5.04" shape="2487.42,7555.97 2488.12,7554.77 2488.26,7553.64 2487.84,7552.59 2486.85,7551.62"/>
    </edge>
    <edge id=":3848470320_7" function="internal">
        <lane id=":3848470320_7_0" index="0" allow="pedestrian delivery bicycle" speed="5.56" length="9.40" shape="2487.42,7555.97 2493.27,7548.60"/>
    </edge>
    <edge id=":3848470320_8" function="internal">
        <lane id=":3848470320_8_0" index="0" allow="pedestrian delivery bicycle" speed="3.65" length="4.67" shape="2487.42,7555.97 2488.80,7555.52 2489.67,7555.71 2490.05,7556.52 2489.93,7557.96"/>
    </edge>
    <edge id=":3848470321_0" function="internal">
        <lane id=":3848470321_0_0" index="0" allow="pedestrian delivery bicycle" speed="5.02" length="5.02" shape="2368.33,7565.91 2367.31,7564.98 2366.24,7564.62 2365.13,7564.80 2363.96,7565.54"/>
    </edge>
    <edge id=":3848470321_1" function="internal">
        <lane id=":3848470321_1_0" index="0" allow="pedestrian delivery bicycle" speed="5.56" length="9.40" shape="2368.33,7565.91 2362.32,7558.68"/>
    </edge>
    <edge id=":3848470321_2" function="internal">
        <lane id=":3848470321_2_0" index="0" allow="pedestrian delivery bicycle" speed="3.65" length="4.67" shape="2368.33,7565.91 2368.18,7564.47 2368.54,7563.65 2369.41,7563.45 2370.79,7563.86"/>
    </edge>
    <edge id=":3848470321_3" function="internal">
        <lane id=":3848470321_3_0" index="0" allow="pedestrian delivery bicycle" speed="5.56" length="9.40" shape="2364.78,7556.64 2370.79,7563.86"/>
    </edge>
    <edge id=":3848470321_4" function="internal">
        <lane id=":3848470321_4_0" index="0" allow="pedestrian delivery bicycle" speed="5.56" length="10.16" shape="2364.78,7556.64 2366.22,7558.99 2366.57,7561.26 2365.81,7563.44 2363.96,7565.54"/>
    </edge>
    <edge id=":3848470321_5" function="internal">
        <lane id=":3848470321_5_0" index="0" allow="pedestrian delivery bicycle" speed="3.65" length="4.67" shape="2364.78,7556.64 2364.93,7558.07 2364.57,7558.89 2363.70,7559.09 2362.32,7558.68"/>
    </edge>
    <edge id=":3848470321_6" function="internal">
        <lane id=":3848470321_6_0" index="0" allow="pedestrian delivery bicycle" speed="5.09" length="5.06" shape="2361.88,7563.11 2362.81,7562.06 2363.19,7560.97 2363.03,7559.85 2362.32,7558.68"/>
    </edge>
    <edge id=":3848470321_7" function="internal">
        <lane id=":3848470321_7_0" index="0" allow="pedestrian delivery bicycle" speed="5.56" length="10.23" shape="2361.88,7563.11 2364.25,7561.60 2366.53,7561.23 2368.71,7561.98 2370.79,7563.86"/>
    </edge>
    <edge id=":3848470321_8" function="internal">
        <lane id=":3848470321_8_0" index="0" allow="pedestrian delivery bicycle" speed="3.65" length="4.67" shape="2361.88,7563.11 2363.31,7562.94 2364.14,7563.28 2364.35,7564.15 2363.96,7565.54"/>
    </edge>
    <edge id=":3848470322_0" function="internal">
        <lane id=":3848470322_0_0" index="0" allow="pedestrian delivery bicycle" speed="3.65" length="4.67" shape="2345.69,7581.21 2344.26,7581.39 2343.43,7581.04 2343.21,7580.17 2343.60,7578.78"/>
    </edge>
    <edge id=":3848470324_0" function="internal">
        <lane id=":3848470324_0_0" index="0" allow="pedestrian delivery bicycle" speed="3.65" length="4.67" shape="2303.83,7588.57 2303.68,7587.14 2304.04,7586.32 2304.91,7586.11 2306.29,7586.52"/>
    </edge>
    <edge id=":3848470325_0" function="internal">
        <lane id=":3848470325_0_0" index="0" allow="pedestrian delivery bicycle" speed="5.56" length="8.05" shape="2469.57,7583.58 2468.09,7585.46 2467.15,7586.81 2466.41,7588.26 2465.49,7590.47"/>
    </edge>
    <edge id=":3848470325_1" function="internal">
        <lane id=":3848470325_1_0" index="0" allow="pedestrian delivery bicycle" speed="5.56" length="9.86" shape="2469.57,7583.58 2467.62,7585.43 2465.53,7586.25 2463.29,7586.06 2460.90,7584.85"/>
    </edge>
    <edge id=":3848470325_2" function="internal">
        <lane id=":3848470325_2_0" index="0" allow="pedestrian delivery bicycle" speed="3.65" length="4.67" shape="2469.57,7583.58 2468.20,7584.03 2467.32,7583.84 2466.94,7583.03 2467.06,7581.59"/>
    </edge>
    <edge id=":3848470325_3" function="internal">
        <lane id=":3848470325_3_0" index="0" allow="pedestrian delivery bicycle" speed="5.11" length="4.93" shape="2462.73,7582.22 2463.92,7582.83 2465.05,7582.93 2466.09,7582.51 2467.06,7581.59"/>
    </edge>
    <edge id=":3848470325_4" function="internal">
        <lane id=":3848470325_4_0" index="0" allow="pedestrian delivery bicycle" speed="5.56" length="9.49" shape="2462.73,7582.22 2464.68,7583.98 2465.79,7585.94 2466.06,7588.10 2465.49,7590.47"/>
    </edge>
    <edge id=":3848470325_5" function="internal">
        <lane id=":3848470325_5_0" index="0" allow="pedestrian delivery bicycle" speed="3.65" length="4.67" shape="2462.73,7582.22 2463.26,7583.57 2463.12,7584.45 2462.34,7584.88 2460.90,7584.85"/>
    </edge>
    <edge id=":3848470325_6" function="internal">
        <lane id=":3848470325_6_0" index="0" allow="pedestrian delivery bicycle" speed="5.53" length="5.14" shape="2462.52,7589.27 2462.81,7588.03 2462.63,7586.88 2461.99,7585.82 2460.90,7584.85"/>
    </edge>
    <edge id=":3848470325_7" function="internal">
        <lane id=":3848470325_7_0" index="0" allow="pedestrian delivery bicycle" speed="5.56" length="8.98" shape="2462.52,7589.27 2463.54,7586.82 2464.37,7585.19 2465.42,7583.68 2467.06,7581.59"/>
    </edge>
    <edge id=":3848470325_8" function="internal">
        <lane id=":3848470325_8_0" index="0" allow="pedestrian delivery bicycle" speed="3.65" length="4.67" shape="2462.52,7589.27 2463.71,7588.46 2464.60,7588.38 2465.19,7589.05 2465.49,7590.47"/>
    </edge>
    <edge id=":3848470326_0" function="internal">
        <lane id=":3848470326_0_0" index="0" allow="pedestrian delivery bicycle" speed="5.02" length="5.02" shape="2392.38,7594.78 2391.36,7593.86 2390.29,7593.49 2389.17,7593.68 2388.01,7594.42"/>
    </edge>
    <edge id=":3848470326_1" function="internal">
        <lane id=":3848470326_1_0" index="0" allow="pedestrian delivery bicycle" speed="5.56" length="9.40" shape="2392.38,7594.78 2386.36,7587.56"/>
    </edge>
    <edge id=":3848470326_2" function="internal">
        <lane id=":3848470326_2_0" index="0" allow="pedestrian delivery bicycle" speed="3.65" length="4.67" shape="2392.38,7594.78 2392.23,7593.35 2392.58,7592.53 2393.45,7592.33 2394.84,7592.74"/>
    </edge>
    <edge id=":3848470326_3" function="internal">
        <lane id=":3848470326_3_0" index="0" allow="pedestrian delivery bicycle" speed="5.56" length="9.40" shape="2388.82,7585.51 2394.84,7592.74"/>
    </edge>
    <edge id=":3848470326_4" function="internal">
        <lane id=":3848470326_4_0" index="0" allow="pedestrian delivery bicycle" speed="5.56" length="10.16" shape="2388.82,7585.51 2390.27,7587.86 2390.61,7590.13 2389.86,7592.32 2388.01,7594.42"/>
    </edge>
    <edge id=":3848470326_5" function="internal">
        <lane id=":3848470326_5_0" index="0" allow="pedestrian delivery bicycle" speed="3.65" length="4.67" shape="2388.82,7585.51 2388.98,7586.95 2388.62,7587.77 2387.75,7587.97 2386.36,7587.56"/>
    </edge>
    <edge id=":3848470326_6" function="internal">
        <lane id=":3848470326_6_0" index="0" allow="pedestrian delivery bicycle" speed="5.09" length="5.06" shape="2385.93,7591.99 2386.86,7590.94 2387.24,7589.85 2387.07,7588.72 2386.36,7587.56"/>
    </edge>
    <edge id=":3848470326_7" function="internal">
        <lane id=":3848470326_7_0" index="0" allow="pedestrian delivery bicycle" speed="5.56" length="10.23" shape="2385.93,7591.99 2388.30,7590.48 2390.57,7590.10 2392.75,7590.85 2394.84,7592.74"/>
    </edge>
    <edge id=":3848470326_8" function="internal">
        <lane id=":3848470326_8_0" index="0" allow="pedestrian delivery bicycle" speed="3.65" length="4.67" shape="2385.93,7591.99 2387.36,7591.81 2388.18,7592.16 2388.40,7593.03 2388.01,7594.42"/>
    </edge>
    <edge id=":3848470343_0" function="internal">
        <lane id=":3848470343_0_0" index="0" allow="pedestrian delivery bicycle" speed="4.87" length="4.66" shape="2420.39,7628.41 2419.49,7627.64 2418.51,7627.38 2417.45,7627.63 2416.31,7628.39"/>
    </edge>
    <edge id=":3848470343_1" function="internal">
        <lane id=":3848470343_1_0" index="0" allow="pedestrian delivery bicycle" speed="5.56" length="8.95" shape="2420.39,7628.41 2414.66,7621.53"/>
    </edge>
    <edge id=":3848470343_2" function="internal">
        <lane id=":3848470343_2_0" index="0" allow="pedestrian delivery bicycle" speed="3.65" length="4.67" shape="2420.39,7628.41 2420.23,7626.97 2420.59,7626.15 2421.46,7625.95 2422.84,7626.36"/>
    </edge>
    <edge id=":3848470343_3" function="internal">
        <lane id=":3848470343_3_0" index="0" allow="pedestrian delivery bicycle" speed="5.56" length="8.95" shape="2417.12,7619.48 2422.84,7626.36"/>
    </edge>
    <edge id=":3848470343_4" function="internal">
        <lane id=":3848470343_4_0" index="0" allow="pedestrian delivery bicycle" speed="5.56" length="10.16" shape="2417.12,7619.48 2418.56,7621.83 2418.91,7624.10 2418.16,7626.29 2416.31,7628.39"/>
    </edge>
    <edge id=":3848470343_5" function="internal">
        <lane id=":3848470343_5_0" index="0" allow="pedestrian delivery bicycle" speed="3.65" length="4.67" shape="2417.12,7619.48 2417.27,7620.92 2416.91,7621.74 2416.04,7621.94 2414.66,7621.53"/>
    </edge>
    <edge id=":3848470343_6" function="internal">
        <lane id=":3848470343_6_0" index="0" allow="pedestrian delivery bicycle" speed="5.09" length="5.06" shape="2414.22,7625.96 2415.15,7624.91 2415.53,7623.82 2415.37,7622.69 2414.66,7621.53"/>
    </edge>
    <edge id=":3848470343_7" function="internal">
        <lane id=":3848470343_7_0" index="0" allow="pedestrian delivery bicycle" speed="5.56" length="9.87" shape="2414.22,7625.96 2416.57,7624.43 2418.79,7623.98 2420.88,7624.63 2422.84,7626.36"/>
    </edge>
    <edge id=":3848470343_8" function="internal">
        <lane id=":3848470343_8_0" index="0" allow="pedestrian delivery bicycle" speed="3.65" length="4.67" shape="2414.22,7625.96 2415.65,7625.78 2416.48,7626.13 2416.70,7627.00 2416.31,7628.39"/>
    </edge>
    <edge id=":3848470347_0" function="internal">
        <lane id=":3848470347_0_0" index="0" allow="pedestrian delivery bicycle" speed="5.56" length="8.96" shape="2426.25,7635.45 2420.51,7628.56"/>
    </edge>
    <edge id=":3848470347_1" function="internal">
        <lane id=":3848470347_1_0" index="0" allow="pedestrian delivery bicycle" speed="5.56" length="10.52" shape="2426.25,7635.45 2424.72,7632.96 2424.41,7630.64 2425.30,7628.47 2427.40,7626.45"/>
    </edge>
    <edge id=":3848470347_2" function="internal">
        <lane id=":3848470347_2_0" index="0" allow="pedestrian delivery bicycle" speed="3.65" length="4.67" shape="2426.25,7635.45 2426.10,7634.01 2426.46,7633.19 2427.33,7632.99 2428.71,7633.40"/>
    </edge>
    <edge id=":3848470347_3" function="internal">
        <lane id=":3848470347_3_0" index="0" allow="pedestrian delivery bicycle" speed="4.97" length="5.09" shape="2429.26,7629.05 2428.25,7630.02 2427.82,7631.07 2427.97,7632.20 2428.71,7633.40"/>
    </edge>
    <edge id=":3848470347_4" function="internal">
        <lane id=":3848470347_4_0" index="0" allow="pedestrian delivery bicycle" speed="5.56" length="9.83" shape="2429.26,7629.05 2426.76,7630.42 2424.47,7630.80 2422.38,7630.18 2420.51,7628.56"/>
    </edge>
    <edge id=":3848470347_5" function="internal">
        <lane id=":3848470347_5_0" index="0" allow="pedestrian delivery bicycle" speed="3.65" length="4.67" shape="2429.26,7629.05 2427.82,7629.10 2427.03,7628.68 2426.89,7627.80 2427.40,7626.45"/>
    </edge>
    <edge id=":3848470347_6" function="internal">
        <lane id=":3848470347_6_0" index="0" allow="pedestrian delivery bicycle" speed="5.14" length="4.94" shape="2422.97,7626.51 2423.86,7627.24 2424.89,7627.47 2426.07,7627.21 2427.40,7626.45"/>
    </edge>
    <edge id=":3848470347_7" function="internal">
        <lane id=":3848470347_7_0" index="0" allow="pedestrian delivery bicycle" speed="5.56" length="8.96" shape="2422.97,7626.51 2428.71,7633.40"/>
    </edge>
    <edge id=":3848470347_8" function="internal">
        <lane id=":3848470347_8_0" index="0" allow="pedestrian delivery bicycle" speed="3.65" length="4.67" shape="2422.97,7626.51 2423.13,7627.94 2422.77,7628.76 2421.90,7628.97 2420.51,7628.56"/>
    </edge>
    <edge id=":3848470348_0" function="internal">
        <lane id=":3848470348_0_0" index="0" allow="pedestrian delivery bicycle" speed="5.56" length="9.40" shape="2346.59,7629.95 2339.45,7636.07"/>
    </edge>
    <edge id=":3848470348_1" function="internal">
        <lane id=":3848470348_1_0" index="0" allow="pedestrian delivery bicycle" speed="5.56" length="10.23" shape="2346.59,7629.95 2344.22,7631.46 2341.95,7631.84 2339.76,7631.09 2337.68,7629.20"/>
    </edge>
    <edge id=":3848470348_2" function="internal">
        <lane id=":3848470348_2_0" index="0" allow="pedestrian delivery bicycle" speed="3.65" length="4.67" shape="2346.59,7629.95 2345.16,7630.12 2344.33,7629.78 2344.12,7628.91 2344.51,7627.52"/>
    </edge>
    <edge id=":3848470348_3" function="internal">
        <lane id=":3848470348_3_0" index="0" allow="pedestrian delivery bicycle" speed="5.02" length="5.02" shape="2340.14,7627.16 2341.16,7628.08 2342.23,7628.45 2343.35,7628.26 2344.51,7627.52"/>
    </edge>
    <edge id=":3848470348_4" function="internal">
        <lane id=":3848470348_4_0" index="0" allow="pedestrian delivery bicycle" speed="5.56" length="10.16" shape="2340.14,7627.16 2341.61,7629.53 2341.99,7631.81 2341.27,7633.99 2339.45,7636.07"/>
    </edge>
    <edge id=":3848470348_5" function="internal">
        <lane id=":3848470348_5_0" index="0" allow="pedestrian delivery bicycle" speed="3.65" length="4.67" shape="2340.14,7627.16 2340.29,7628.59 2339.93,7629.41 2339.06,7629.61 2337.68,7629.20"/>
    </edge>
    <edge id=":3848470348_6" function="internal">
        <lane id=":3848470348_6_0" index="0" allow="pedestrian delivery bicycle" speed="5.09" length="5.06" shape="2337.37,7633.64 2338.27,7632.61 2338.62,7631.53 2338.42,7630.39 2337.68,7629.20"/>
    </edge>
    <edge id=":3848470348_7" function="internal">
        <lane id=":3848470348_7_0" index="0" allow="pedestrian delivery bicycle" speed="5.56" length="9.40" shape="2337.37,7633.64 2344.51,7627.52"/>
    </edge>
    <edge id=":3848470348_8" function="internal">
        <lane id=":3848470348_8_0" index="0" allow="pedestrian delivery bicycle" speed="3.65" length="4.67" shape="2337.37,7633.64 2338.80,7633.47 2339.63,7633.81 2339.84,7634.68 2339.45,7636.07"/>
    </edge>
    <edge id=":3848470349_0" function="internal">
        <lane id=":3848470349_0_0" index="0" allow="pedestrian delivery bicycle" speed="3.65" length="4.67" shape="2337.27,7637.95 2335.84,7638.12 2335.01,7637.77 2334.79,7636.91 2335.18,7635.52"/>
    </edge>
    <edge id=":3848470352_0" function="internal">
        <lane id=":3848470352_0_0" index="0" allow="pedestrian delivery bicycle" speed="5.02" length="5.02" shape="2393.02,7652.48 2392.00,7651.56 2390.93,7651.19 2389.81,7651.37 2388.65,7652.11"/>
    </edge>
    <edge id=":3848470352_1" function="internal">
        <lane id=":3848470352_1_0" index="0" allow="pedestrian delivery bicycle" speed="5.56" length="10.16" shape="2393.02,7652.48 2391.55,7650.10 2391.17,7647.82 2391.89,7645.64 2393.70,7643.56"/>
    </edge>
    <edge id=":3848470352_2" function="internal">