<?xml version="1.0" encoding="UTF-8"?>

<!-- generated on 2025-11-26 11:06:28.515341 by Eclipse SUMO randomTrips.py v1_24_0+0000-b72eb3fabc8
<configuration>
    <net-file value="C:/Users/mayan/Desktop/V2V/Mountain_v2v_project/simulation/map/mountain.net.xml"/>
    <route-file value="C:/Users/mayan/Desktop/V2V/Mountain_v2v_project/simulation/map/routes.rou.xml"/>
    <trip-attributes value="type=&quot;car_slow&quot; departSpeed=&quot;random&quot;"/>
    <end value="350.0"/>
    <period value="1.0"/>
</configuration>
-->

<!-- generated on 2025-11-26 11:06:28 by Eclipse SUMO duarouter Version 1.24.0
<duarouterConfiguration xmlns:xsi="http://www.w3.org/2001/XMLSchema-instance" xsi:noNamespaceSchemaLocation="http://sumo.dlr.de/xsd/duarouterConfiguration.xsd">

    <input>
        <net-file value="C:/Users/mayan/Desktop/V2V/Mountain_v2v_project/simulation/map/mountain.net.xml"/>
        <route-files value="trips.trips.xml"/>
    </input>

    <output>
        <output-file value="C:/Users/mayan/Desktop/V2V/Mountain_v2v_project/simulation/map/routes.rou.xml"/>
        <alternatives-output value="NUL"/>
    </output>

    <time>
        <begin value="0"/>
        <end value="350.0"/>
    </time>

    <report>
        <no-warnings value="true"/>
        <ignore-errors value="true"/>
        <no-step-log value="true"/>
    </report>

</duarouterConfiguration>
-->

<routes xmlns:xsi="http://www.w3.org/2001/XMLSchema-instance" xsi:noNamespaceSchemaLocation="http://sumo.dlr.de/xsd/routes_file.xsd">
    <vehicle id="0" type="car_slow" depart="0.00" departSpeed="random">
        <route edges="28562322#0 -28562322#0"/>
    </vehicle>
    <vehicle id="1" type="car_slow" depart="1.00" departSpeed="random">
        <route edges="-381686206 -28562322#0"/>
    </vehicle>
    <vehicle id="2" type="car_slow" depart="2.00" departSpeed="random">
        <route edges="28562322#0 28562322#1"/>
    </vehicle>
    <vehicle id="3" type="car_slow" depart="3.00" departSpeed="random">
        <route edges="381686206 -381686206 -28562322#0"/>
    </vehicle>
    <vehicle id="4" type="car_slow" depart="4.00" departSpeed="random">
        <route edges="-381686206 -28562322#0"/>
    </vehicle>
    <vehicle id="5" type="car_slow" depart="5.00" departSpeed="random">
        <route edges="-28562322#1 28562322#1"/>
    </vehicle>
    <vehicle id="6" type="car_slow" depart="6.00" departSpeed="random">
        <route edges="-28562322#1 -28562322#0"/>
    </vehicle>
    <vehicle id="7" type="car_slow" depart="7.00" departSpeed="random">
        <route edges="28562322#0 28562322#1"/>
    </vehicle>
    <vehicle id="8" type="car_slow" depart="8.00" departSpeed="random">
        <route edges="-28562322#1 28562322#1"/>
    </vehicle>
    <vehicle id="9" type="car_slow" depart="9.00" departSpeed="random">
        <route edges="381686206 -381686206 -28562322#0"/>
    </vehicle>
    <vehicle id="10" type="car_slow" depart="10.00" departSpeed="random">
        <route edges="381686206 -381686206 28562322#1"/>
    </vehicle>
    <vehicle id="11" type="car_slow" depart="11.00" departSpeed="random">
        <route edges="-381686206 -28562322#0"/>
    </vehicle>
    <vehicle id="12" type="car_slow" depart="12.00" departSpeed="random">
        <route edges="381686206 -381686206"/>
    </vehicle>
    <vehicle id="13" type="car_slow" depart="13.00" departSpeed="random">
        <route edges="-28562322#1 -28562322#0"/>
    </vehicle>
    <vehicle id="14" type="car_slow" depart="14.00" departSpeed="random">
        <route edges="381686206 -381686206 28562322#1"/>
    </vehicle>
    <vehicle id="15" type="car_slow" depart="15.00" departSpeed="random">
        <route edges="381686206 -381686206 28562322#1"/>
    </vehicle>
    <vehicle id="16" type="car_slow" depart="16.00" departSpeed="random">
        <route edges="28562322#0 381686206"/>
    </vehicle>
    <vehicle id="17" type="car_slow" depart="17.00" departSpeed="random">
        <route edges="-381686206 28562322#1"/>
    </vehicle>
    <vehicle id="18" type="car_slow" depart="18.00" departSpeed="random">
        <route edges="381686206 -381686206 28562322#1"/>
    </vehicle>
    <vehicle id="19" type="car_slow" depart="19.00" departSpeed="random">
        <route edges="381686206 -381686206 28562322#1"/>
    </vehicle>
    <vehicle id="20" type="car_slow" depart="20.00" departSpeed="random">
        <route edges="28562322#0 -28562322#0"/>
    </vehicle>
    <vehicle id="21" type="car_slow" depart="21.00" departSpeed="random">
        <route edges="-28562322#1 381686206 -381686206"/>
    </vehicle>
    <vehicle id="22" type="car_slow" depart="22.00" departSpeed="random">
        <route edges="-28562322#1 -28562322#0"/>
    </vehicle>
    <vehicle id="23" type="car_slow" depart="23.00" departSpeed="random">
        <route edges="-28562322#1 381686206 -381686206"/>
    </vehicle>
    <vehicle id="24" type="car_slow" depart="24.00" departSpeed="random">
        <route edges="28562322#0 381686206 -381686206"/>
    </vehicle>
    <vehicle id="25" type="car_slow" depart="25.00" departSpeed="random">
        <route edges="-381686206 -28562322#0"/>
    </vehicle>
    <vehicle id="26" type="car_slow" depart="26.00" departSpeed="random">
        <route edges="-381686206 381686206"/>
    </vehicle>
    <vehicle id="27" type="car_slow" depart="27.00" departSpeed="random">
        <route edges="28562322#0 28562322#1"/>
    </vehicle>
    <vehicle id="28" type="car_slow" depart="28.00" departSpeed="random">
        <route edges="-28562322#1 28562322#1"/>
    </vehicle>
    <vehicle id="29" type="car_slow" depart="29.00" departSpeed="random">
        <route edges="-28562322#1 381686206 -381686206"/>
    </vehicle>
    <vehicle id="30" type="car_slow" depart="30.00" departSpeed="random">
        <route edges="381686206 -381686206 28562322#1"/>
    </vehicle>
    <vehicle id="31" type="car_slow" depart="31.00" departSpeed="random">
        <route edges="28562322#0 28562322#1"/>
    </vehicle>
    <vehicle id="32" type="car_slow" depart="32.00" departSpeed="random">
        <route edges="381686206"/>
    </vehicle>
    <vehicle id="33" type="car_slow" depart="33.00" departSpeed="random">
        <route edges="-28562322#1 -28562322#0"/>
    </vehicle>
    <vehicle id="34" type="car_slow" depart="34.00" departSpeed="random">
        <route edges="-381686206"/>
    </vehicle>
    <vehicle id="35" type="car_slow" depart="35.00" departSpeed="random">
        <route edges="-28562322#1 381686206"/>
    </vehicle>
    <vehicle id="36" type="car_slow" depart="36.00" departSpeed="random">
        <route edges="381686206 -381686206"/>
    </vehicle>
    <vehicle id="37" type="car_slow" depart="37.00" departSpeed="random">
        <route edges="28562322#0 381686206 -381686206"/>
    </vehicle>
    <vehicle id="38" type="car_slow" depart="38.00" departSpeed="random">
        <route edges="381686206 -381686206"/>
    </vehicle>
    <vehicle id="39" type="car_slow" depart="39.00" departSpeed="random">
        <route edges="-381686206 -28562322#0"/>
    </vehicle>
    <vehicle id="40" type="car_slow" depart="40.00" departSpeed="random">
        <route edges="28562322#0 381686206 -381686206"/>
    </vehicle>
    <vehicle id="41" type="car_slow" depart="41.00" departSpeed="random">
        <route edges="28562322#0 381686206"/>
    </vehicle>
    <vehicle id="42" type="car_slow" depart="42.00" departSpeed="random">
        <route edges="-381686206 -28562322#0"/>
    </vehicle>
    <vehicle id="43" type="car_slow" depart="43.00" departSpeed="random">
        <route edges="381686206 -381686206 28562322#1"/>
    </vehicle>
    <vehicle id="44" type="car_slow" depart="44.00" departSpeed="random">
        <route edges="-28562322#1 -28562322#0"/>
    </vehicle>
    <vehicle id="45" type="car_slow" depart="45.00" departSpeed="random">
        <route edges="-28562322#1 28562322#1"/>
    </vehicle>
    <vehicle id="46" type="car_slow" depart="46.00" departSpeed="random">
        <route edges="381686206 -381686206"/>
    </vehicle>
    <vehicle id="47" type="car_slow" depart="47.00" departSpeed="random">
        <route edges="-28562322#1 381686206 -381686206"/>
    </vehicle>
    <vehicle id="48" type="car_slow" depart="48.00" departSpeed="random">
        <route edges="381686206 -381686206 28562322#1"/>
    </vehicle>
    <vehicle id="49" type="car_slow" depart="49.00" departSpeed="random">
        <route edges="381686206"/>
    </vehicle>
    <vehicle id="50" type="car_slow" depart="50.00" departSpeed="random">
        <route edges="-28562322#1 28562322#1"/>
    </vehicle>
    <vehicle id="51" type="car_slow" depart="51.00" departSpeed="random">
        <route edges="28562322#0 28562322#1"/>
    </vehicle>
    <vehicle id="52" type="car_slow" depart="52.00" departSpeed="random">
        <route edges="-381686206 28562322#1"/>
    </vehicle>
    <vehicle id="53" type="car_slow" depart="53.00" departSpeed="random">
        <route edges="-28562322#1 381686206 -381686206"/>
    </vehicle>
    <vehicle id="54" type="car_slow" depart="54.00" departSpeed="random">
        <route edges="-381686206 381686206"/>
    </vehicle>
    <vehicle id="55" type="car_slow" depart="55.00" departSpeed="random">
        <route edges="381686206 -381686206"/>
    </vehicle>
    <vehicle id="56" type="car_slow" depart="56.00" departSpeed="random">
        <route edges="28562322#0 -28562322#0"/>
    </vehicle>
    <vehicle id="57" type="car_slow" depart="57.00" departSpeed="random">
        <route edges="381686206"/>
    </vehicle>
    <vehicle id="58" type="car_slow" depart="58.00" departSpeed="random">
        <route edges="-381686206 28562322#1"/>
    </vehicle>
    <vehicle id="59" type="car_slow" depart="59.00" departSpeed="random">
        <route edges="28562322#0 -28562322#0"/>
    </vehicle>
    <vehicle id="60" type="car_slow" depart="60.00" departSpeed="random">
        <route edges="381686206 -381686206 28562322#1"/>
    </vehicle>
    <vehicle id="61" type="car_slow" depart="61.00" departSpeed="random">
        <route edges="381686206 -381686206 28562322#1"/>
    </vehicle>
    <vehicle id="62" type="car_slow" depart="62.00" departSpeed="random">
        <route edges="-28562322#1 381686206 -381686206"/>
    </vehicle>
    <vehicle id="63" type="car_slow" depart="63.00" departSpeed="random">
        <route edges="-28562322#1 381686206"/>
    </vehicle>
    <vehicle id="64" type="car_slow" depart="64.00" departSpeed="random">
        <route edges="381686206"/>
    </vehicle>
    <vehicle id="65" type="car_slow" depart="65.00" departSpeed="random">
        <route edges="-381686206 -28562322#0"/>
    </vehicle>
    <vehicle id="66" type="car_slow" depart="66.00" departSpeed="random">
        <route edges="381686206"/>
    </vehicle>
    <vehicle id="67" type="car_slow" depart="67.00" departSpeed="random">
        <route edges="-28562322#1 381686206 -381686206"/>
    </vehicle>
    <vehicle id="68" type="car_slow" depart="68.00" departSpeed="random">
        <route edges="-28562322#1 381686206"/>
    </vehicle>
    <vehicle id="69" type="car_slow" depart="69.00" departSpeed="random">
        <route edges="381686206 -381686206 -28562322#0"/>
    </vehicle>
    <vehicle id="70" type="car_slow" depart="70.00" departSpeed="random">
        <route edges="-381686206 28562322#1"/>
    </vehicle>
    <vehicle id="71" type="car_slow" depart="71.00" departSpeed="random">
        <route edges="-381686206 381686206"/>
    </vehicle>
    <vehicle id="72" type="car_slow" depart="72.00" departSpeed="random">
        <route edges="-381686206 -28562322#0"/>
    </vehicle>
    <vehicle id="73" type="car_slow" depart="73.00" departSpeed="random">
        <route edges="28562322#0 28562322#1"/>
    </vehicle>
    <vehicle id="74" type="car_slow" depart="74.00" departSpeed="random">
        <route edges="-28562322#1 381686206 -381686206"/>
    </vehicle>
    <vehicle id="75" type="car_slow" depart="75.00" departSpeed="random">
        <route edges="381686206 -381686206 28562322#1"/>
    </vehicle>
    <vehicle id="76" type="car_slow" depart="76.00" departSpeed="random">
        <route edges="-381686206 28562322#1"/>
    </vehicle>
    <vehicle id="77" type="car_slow" depart="77.00" departSpeed="random">
        <route edges="-28562322#1 -28562322#0"/>
    </vehicle>
    <vehicle id="78" type="car_slow" depart="78.00" departSpeed="random">
        <route edges="-381686206 28562322#1"/>
    </vehicle>
    <vehicle id="79" type="car_slow" depart="79.00" departSpeed="random">
        <route edges="-28562322#1 -28562322#0"/>
    </vehicle>
    <vehicle id="80" type="car_slow" depart="80.00" departSpeed="random">
        <route edges="-28562322#1 28562322#1"/>
    </vehicle>
    <vehicle id="81" type="car_slow" depart="81.00" departSpeed="random">
        <route edges="-28562322#1 381686206"/>
    </vehicle>
    <vehicle id="82" type="car_slow" depart="82.00" departSpeed="random">
        <route edges="381686206 -381686206 -28562322#0"/>
    </vehicle>
    <vehicle id="83" type="car_slow" depart="83.00" departSpeed="random">
        <route edges="-28562322#1 28562322#1"/>
    </vehicle>
    <vehicle id="84" type="car_slow" depart="84.00" departSpeed="random">
        <route edges="-28562322#1 -28562322#0"/>
    </vehicle>
    <vehicle id="85" type="car_slow" depart="85.00" departSpeed="random">
        <route edges="381686206 -381686206 28562322#1"/>
    </vehicle>
    <vehicle id="86" type="car_slow" depart="86.00" departSpeed="random">
        <route edges="-381686206 381686206"/>
    </vehicle>
    <vehicle id="87" type="car_slow" depart="87.00" departSpeed="random">
        <route edges="381686206 -381686206 -28562322#0"/>
    </vehicle>
    <vehicle id="88" type="car_slow" depart="88.00" departSpeed="random">
        <route edges="-28562322#1 381686206 -381686206"/>
    </vehicle>
    <vehicle id="89" type="car_slow" depart="89.00" departSpeed="random">
        <route edges="-381686206"/>
    </vehicle>
    <vehicle id="90" type="car_slow" depart="90.00" departSpeed="random">
        <route edges="28562322#0 28562322#1"/>
    </vehicle>
    <vehicle id="91" type="car_slow" depart="91.00" departSpeed="random">
        <route edges="381686206 -381686206 -28562322#0"/>
    </vehicle>
    <vehicle id="92" type="car_slow" depart="92.00" departSpeed="random">
        <route edges="-381686206"/>
    </vehicle>
    <vehicle id="93" type="car_slow" depart="93.00" departSpeed="random">
        <route edges="381686206 -381686206 -28562322#0"/>
    </vehicle>
    <vehicle id="94" type="car_slow" depart="94.00" departSpeed="random">
        <route edges="-28562322#1 381686206 -381686206"/>
    </vehicle>
    <vehicle id="95" type="car_slow" depart="95.00" departSpeed="random">
        <route edges="-381686206"/>
    </vehicle>
    <vehicle id="96" type="car_slow" depart="96.00" departSpeed="random">
        <route edges="-28562322#1 381686206"/>
    </vehicle>
    <vehicle id="97" type="car_slow" depart="97.00" departSpeed="random">
        <route edges="-381686206 381686206"/>
    </vehicle>
    <vehicle id="98" type="car_slow" depart="98.00" departSpeed="random">
        <route edges="28562322#0 -28562322#0"/>
    </vehicle>
    <vehicle id="99" type="car_slow" depart="99.00" departSpeed="random">
        <route edges="381686206"/>
    </vehicle>
    <vehicle id="100" type="car_slow" depart="100.00" departSpeed="random">
        <route edges="381686206"/>
    </vehicle>
    <vehicle id="101" type="car_slow" depart="101.00" departSpeed="random">
        <route edges="381686206 -381686206 -28562322#0"/>
    </vehicle>
    <vehicle id="102" type="car_slow" depart="102.00" departSpeed="random">
        <route edges="-381686206 -28562322#0"/>
    </vehicle>
    <vehicle id="103" type="car_slow" depart="103.00" departSpeed="random">
        <route edges="-381686206 -28562322#0"/>
    </vehicle>
    <vehicle id="104" type="car_slow" depart="104.00" departSpeed="random">
        <route edges="-381686206 381686206"/>
    </vehicle>
    <vehicle id="105" type="car_slow" depart="105.00" departSpeed="random">
        <route edges="-381686206 381686206"/>
    </vehicle>
    <vehicle id="106" type="car_slow" depart="106.00" departSpeed="random">
        <route edges="-381686206"/>
    </vehicle>
    <vehicle id="107" type="car_slow" depart="107.00" departSpeed="random">
        <route edges="381686206"/>
    </vehicle>
    <vehicle id="108" type="car_slow" depart="108.00" departSpeed="random">
        <route edges="28562322#0 28562322#1"/>
    </vehicle>
    <vehicle id="109" type="car_slow" depart="109.00" departSpeed="random">
        <route edges="-28562322#1 381686206 -381686206"/>
    </vehicle>
    <vehicle id="110" type="car_slow" depart="110.00" departSpeed="random">
        <route edges="381686206 -381686206 28562322#1"/>
    </vehicle>
    <vehicle id="111" type="car_slow" depart="111.00" departSpeed="random">
        <route edges="28562322#0 28562322#1"/>
    </vehicle>
    <vehicle id="112" type="car_slow" depart="112.00" departSpeed="random">
        <route edges="-28562322#1 28562322#1"/>
    </vehicle>
    <vehicle id="113" type="car_slow" depart="113.00" departSpeed="random">
        <route edges="28562322#0 381686206"/>
    </vehicle>
    <vehicle id="114" type="car_slow" depart="114.00" departSpeed="random">
        <route edges="-28562322#1 381686206"/>
    </vehicle>
    <vehicle id="115" type="car_slow" depart="115.00" departSpeed="random">
        <route edges="-28562322#1 -28562322#0"/>
    </vehicle>
    <vehicle id="116" type="car_slow" depart="116.00" departSpeed="random">
        <route edges="28562322#0 28562322#1"/>
    </vehicle>
    <vehicle id="117" type="car_slow" depart="117.00" departSpeed="random">
        <route edges="-28562322#1 -28562322#0"/>
    </vehicle>
    <vehicle id="118" type="car_slow" depart="118.00" departSpeed="random">
        <route edges="381686206 -381686206 -28562322#0"/>
    </vehicle>
    <vehicle id="119" type="car_slow" depart="119.00" departSpeed="random">
        <route edges="28562322#0 28562322#1"/>
    </vehicle>
    <vehicle id="120" type="car_slow" depart="120.00" departSpeed="random">
        <route edges="-381686206 28562322#1"/>
    </vehicle>
    <vehicle id="121" type="car_slow" depart="121.00" departSpeed="random">
        <route edges="28562322#0 381686206"/>
    </vehicle>
    <vehicle id="122" type="car_slow" depart="122.00" departSpeed="random">
        <route edges="-28562322#1 28562322#1"/>
    </vehicle>
    <vehicle id="123" type="car_slow" depart="123.00" departSpeed="random">
        <route edges="-28562322#1 381686206 -381686206"/>
    </vehicle>
    <vehicle id="124" type="car_slow" depart="124.00" departSpeed="random">
        <route edges="28562322#0 381686206 -381686206"/>
    </vehicle>
    <vehicle id="125" type="car_slow" depart="125.00" departSpeed="random">
        <route edges="-381686206 381686206"/>
    </vehicle>
    <vehicle id="126" type="car_slow" depart="126.00" departSpeed="random">
        <route edges="-28562322#1 381686206 -381686206"/>
    </vehicle>
    <vehicle id="127" type="car_slow" depart="127.00" departSpeed="random">
        <route edges="381686206"/>
    </vehicle>
    <vehicle id="128" type="car_slow" depart="128.00" departSpeed="random">
        <route edges="-28562322#1 -28562322#0"/>
    </vehicle>
    <vehicle id="129" type="car_slow" depart="129.00" departSpeed="random">
        <route edges="-381686206 381686206"/>
    </vehicle>
    <vehicle id="130" type="car_slow" depart="130.00" departSpeed="random">
        <route edges="381686206"/>
    </vehicle>
    <vehicle id="131" type="car_slow" depart="131.00" departSpeed="random">
        <route edges="-381686206 -28562322#0"/>
    </vehicle>
    <vehicle id="132" type="car_slow" depart="132.00" departSpeed="random">
        <route edges="381686206 -381686206 28562322#1"/>
    </vehicle>
    <vehicle id="133" type="car_slow" depart="133.00" departSpeed="random">
        <route edges="28562322#0 381686206"/>
    </vehicle>
    <vehicle id="134" type="car_slow" depart="134.00" departSpeed="random">
        <route edges="28562322#0 -28562322#0"/>
    </vehicle>
    <vehicle id="135" type="car_slow" depart="135.00" departSpeed="random">
        <route edges="381686206 -381686206"/>
    </vehicle>
    <vehicle id="136" type="car_slow" depart="136.00" departSpeed="random">
        <route edges="28562322#0 381686206"/>
    </vehicle>
    <vehicle id="137" type="car_slow" depart="137.00" departSpeed="random">
        <route edges="-28562322#1 -28562322#0"/>
    </vehicle>
    <vehicle id="138" type="car_slow" depart="138.00" departSpeed="random">
        <route edges="-28562322#1 28562322#1"/>
    </vehicle>
    <vehicle id="139" type="car_slow" depart="139.00" departSpeed="random">
        <route edges="-381686206 28562322#1"/>
    </vehicle>
    <vehicle id="140" type="car_slow" depart="140.00" departSpeed="random">
        <route edges="28562322#0 -28562322#0"/>
    </vehicle>
    <vehicle id="141" type="car_slow" depart="141.00" departSpeed="random">
        <route edges="28562322#0 381686206 -381686206"/>
    </vehicle>
    <vehicle id="142" type="car_slow" depart="142.00" departSpeed="random">
        <route edges="-381686206 381686206"/>
    </vehicle>
    <vehicle id="143" type="car_slow" depart="143.00" departSpeed="random">
        <route edges="381686206 -381686206 -28562322#0"/>
    </vehicle>
    <vehicle id="144" type="car_slow" depart="144.00" departSpeed="random">
        <route edges="-381686206"/>
    </vehicle>
    <vehicle id="145" type="car_slow" depart="145.00" departSpeed="random">
        <route edges="-28562322#1 381686206"/>
    </vehicle>
    <vehicle id="146" type="car_slow" depart="146.00" departSpeed="random">
        <route edges="28562322#0 381686206 -381686206"/>
    </vehicle>
    <vehicle id="147" type="car_slow" depart="147.00" departSpeed="random">
        <route edges="28562322#0 28562322#1"/>
    </vehicle>
    <vehicle id="148" type="car_slow" depart="148.00" departSpeed="random">
        <route edges="-381686206 -28562322#0"/>
    </vehicle>
    <vehicle id="149" type="car_slow" depart="149.00" departSpeed="random">
        <route edges="-28562322#1 381686206"/>
    </vehicle>
    <vehicle id="150" type="car_slow" depart="150.00" departSpeed="random">
        <route edges="381686206 -381686206 28562322#1"/>
    </vehicle>
    <vehicle id="151" type="car_slow" depart="151.00" departSpeed="random">
        <route edges="381686206 -381686206 28562322#1"/>
    </vehicle>
    <vehicle id="152" type="car_slow" depart="152.00" departSpeed="random">
        <route edges="-28562322#1 -28562322#0"/>
    </vehicle>
    <vehicle id="153" type="car_slow" depart="153.00" departSpeed="random">
        <route edges="-381686206 381686206"/>
    </vehicle>
    <vehicle id="154" type="car_slow" depart="154.00" departSpeed="random">
        <route edges="381686206"/>
    </vehicle>
    <vehicle id="155" type="car_slow" depart="155.00" departSpeed="random">
        <route edges="381686206 -381686206 -28562322#0"/>
    </vehicle>
    <vehicle id="156" type="car_slow" depart="156.00" departSpeed="random">
        <route edges="-28562322#1 -28562322#0"/>
    </vehicle>
    <vehicle id="157" type="car_slow" depart="157.00" departSpeed="random">
        <route edges="381686206"/>
    </vehicle>
    <vehicle id="158" type="car_slow" depart="158.00" departSpeed="random">
        <route edges="-381686206 28562322#1"/>
    </vehicle>
    <vehicle id="159" type="car_slow" depart="159.00" departSpeed="random">
        <route edges="-28562322#1 381686206"/>
    </vehicle>
    <vehicle id="160" type="car_slow" depart="160.00" departSpeed="random">
        <route edges="381686206"/>
    </vehicle>
    <vehicle id="161" type="car_slow" depart="161.00" departSpeed="random">
        <route edges="381686206"/>
    </vehicle>
    <vehicle id="162" type="car_slow" depart="162.00" departSpeed="random">
        <route edges="-28562322#1 28562322#1"/>
    </vehicle>
    <vehicle id="163" type="car_slow" depart="163.00" departSpeed="random">
        <route edges="-381686206 381686206"/>
    </vehicle>
    <vehicle id="164" type="car_slow" depart="164.00" departSpeed="random">
        <route edges="381686206"/>
    </vehicle>
    <vehicle id="165" type="car_slow" depart="165.00" departSpeed="random">
        <route edges="381686206 -381686206"/>
    </vehicle>
    <vehicle id="166" type="car_slow" depart="166.00" departSpeed="random">
        <route edges="381686206 -381686206 -28562322#0"/>
    </vehicle>
    <vehicle id="167" type="car_slow" depart="167.00" departSpeed="random">
        <route edges="381686206"/>
    </vehicle>
    <vehicle id="168" type="car_slow" depart="168.00" departSpeed="random">
        <route edges="-28562322#1 381686206"/>
    </vehicle>
    <vehicle id="169" type="car_slow" depart="169.00" departSpeed="random">
        <route edges="-381686206"/>
    </vehicle>
    <vehicle id="170" type="car_slow" depart="170.00" departSpeed="random">
        <route edges="381686206 -381686206 -28562322#0"/>
    </vehicle>
    <vehicle id="171" type="car_slow" depart="171.00" departSpeed="random">
        <route edges="-28562322#1 -28562322#0"/>
    </vehicle>
    <vehicle id="172" type="car_slow" depart="172.00" departSpeed="random">
        <route edges="-381686206 381686206"/>
    </vehicle>
    <vehicle id="173" type="car_slow" depart="173.00" departSpeed="random">
        <route edges="381686206 -381686206"/>
    </vehicle>
    <vehicle id="174" type="car_slow" depart="174.00" departSpeed="random">
        <route edges="28562322#0 381686206 -381686206"/>
    </vehicle>
    <vehicle id="175" type="car_slow" depart="175.00" departSpeed="random">
        <route edges="381686206 -381686206 28562322#1"/>
    </vehicle>
    <vehicle id="176" type="car_slow" depart="176.00" departSpeed="random">
        <route edges="381686206 -381686206 -28562322#0"/>
    </vehicle>
    <vehicle id="177" type="car_slow" depart="177.00" departSpeed="random">
        <route edges="381686206 -381686206 -28562322#0"/>
    </vehicle>
    <vehicle id="178" type="car_slow" depart="178.00" departSpeed="random">
        <route edges="381686206 -381686206"/>
    </vehicle>
    <vehicle id="179" type="car_slow" depart="179.00" departSpeed="random">
        <route edges="-28562322#1 381686206 -381686206"/>
    </vehicle>
    <vehicle id="180" type="car_slow" depart="180.00" departSpeed="random">
        <route edges="28562322#0 381686206 -381686206"/>
    </vehicle>
    <vehicle id="181" type="car_slow" depart="181.00" departSpeed="random">
        <route edges="28562322#0 28562322#1"/>
    </vehicle>
    <vehicle id="182" type="car_slow" depart="182.00" departSpeed="random">
        <route edges="-381686206 28562322#1"/>
    </vehicle>
    <vehicle id="183" type="car_slow" depart="183.00" departSpeed="random">
        <route edges="-381686206 28562322#1"/>
    </vehicle>
    <vehicle id="184" type="car_slow" depart="184.00" departSpeed="random">
        <route edges="-28562322#1 381686206"/>
    </vehicle>
    <vehicle id="185" type="car_slow" depart="185.00" departSpeed="random">
        <route edges="28562322#0 28562322#1"/>
    </vehicle>
    <vehicle id="186" type="car_slow" depart="186.00" departSpeed="random">
        <route edges="28562322#0 28562322#1"/>
    </vehicle>
    <vehicle id="187" type="car_slow" depart="187.00" departSpeed="random">
        <route edges="-381686206 -28562322#0"/>
    </vehicle>
    <vehicle id="188" type="car_slow" depart="188.00" departSpeed="random">
        <route edges="28562322#0 381686206 -381686206"/>
    </vehicle>
    <vehicle id="189" type="car_slow" depart="189.00" departSpeed="random">
        <route edges="-381686206 381686206"/>
    </vehicle>
    <vehicle id="190" type="car_slow" depart="190.00" departSpeed="random">
        <route edges="28562322#0 381686206 -381686206"/>
    </vehicle>
    <vehicle id="191" type="car_slow" depart="191.00" departSpeed="random">
        <route edges="-381686206"/>
    </vehicle>
    <vehicle id="192" type="car_slow" depart="192.00" departSpeed="random">
        <route edges="-381686206"/>
    </vehicle>
    <vehicle id="193" type="car_slow" depart="193.00" departSpeed="random">
        <route edges="-28562322#1 381686206 -381686206"/>
    </vehicle>
    <vehicle id="194" type="car_slow" depart="194.00" departSpeed="random">
        <route edges="381686206 -381686206 28562322#1"/>
    </vehicle>
    <vehicle id="195" type="car_slow" depart="195.00" departSpeed="random">
        <route edges="381686206 -381686206 28562322#1"/>
    </vehicle>
    <vehicle id="196" type="car_slow" depart="196.00" departSpeed="random">
        <route edges="-381686206 28562322#1"/>
    </vehicle>
    <vehicle id="197" type="car_slow" depart="197.00" departSpeed="random">
        <route edges="-28562322#1 381686206 -381686206"/>
    </vehicle>
    <vehicle id="198" type="car_slow" depart="198.00" departSpeed="random">
        <route edges="-381686206 28562322#1"/>
    </vehicle>
    <vehicle id="199" type="car_slow" depart="199.00" departSpeed="random">
        <route edges="28562322#0 381686206 -381686206"/>
    </vehicle>
    <vehicle id="200" type="car_slow" depart="200.00" departSpeed="random">
        <route edges="-381686206 -28562322#0"/>
    </vehicle>
    <vehicle id="201" type="car_slow" depart="201.00" departSpeed="random">
        <route edges="-381686206 381686206"/>
    </vehicle>
    <vehicle id="202" type="car_slow" depart="202.00" departSpeed="random">
        <route edges="381686206 -381686206 -28562322#0"/>
    </vehicle>
    <vehicle id="203" type="car_slow" depart="203.00" departSpeed="random">
        <route edges="-28562322#1 28562322#1"/>
    </vehicle>
    <vehicle id="204" type="car_slow" depart="204.00" departSpeed="random">
        <route edges="28562322#0 381686206 -381686206"/>
    </vehicle>